# generated using pymatgen
data_ZnH2C4N3O4
_symmetry_space_group_name_H-M   'P 1'
_cell_length_a   8.93672357
_cell_length_b   9.84352799
_cell_length_c   9.46233961
_cell_angle_alpha   90.00000000
_cell_angle_beta   116.63594360
_cell_angle_gamma   90.00000000
_symmetry_Int_Tables_number   1
_chemical_formula_structural   ZnH2C4N3O4
_chemical_formula_sum   'Zn4 H8 C16 N12 O16'
_cell_volume   744.05242485
_cell_formula_units_Z   4
loop_
 _symmetry_equiv_pos_site_id
 _symmetry_equiv_pos_as_xyz
  1  'x, y, z'
loop_
 _atom_site_type_symbol
 _atom_site_label
 _atom_site_symmetry_multiplicity
 _atom_site_fract_x
 _atom_site_fract_y
 _atom_site_fract_z
 _atom_site_occupancy
  Zn  Zn0  1  0.17562352  0.44143307  0.43760329  1
  Zn  Zn1  1  0.82437651  0.94143334  0.06239590  1
  Zn  Zn2  1  0.82437582  0.55856731  0.56239508  1
  Zn  Zn3  1  0.17562290  0.05856699  0.93760261  1
  O  O4  1  0.41162948  0.42962009  0.61372904  1
  O  O5  1  0.58836921  0.92962036  0.88626858  1
  O  O6  1  0.58836990  0.57038029  0.38626940  1
  O  O7  1  0.41163013  0.07038002  0.11372979  1
  N  N8  1  0.02572951  0.60572031  0.36102945  1
  N  N9  1  0.97427061  0.10572004  0.13896980  1
  N  N10  1  0.97426987  0.39428006  0.63896873  1
  N  N11  1  0.02572895  0.89428033  0.86102889  1
  C  C12  1  0.52652959  0.47243007  0.58332910  1
  C  C13  1  0.47346911  0.97243018  0.91666859  1
  C  C14  1  0.47346978  0.52757009  0.41666934  1
  C  C15  1  0.52653025  0.02757000  0.08332985  1
  O  O16  1  0.67871963  0.47412009  0.67702911  1
  O  O17  1  0.32127900  0.97412036  0.82296851  1
  O  O18  1  0.32127977  0.52588012  0.32296951  1
  O  O19  1  0.67872028  0.02588001  0.17702974  1
  N  N20  1  0.90467000  0.64432028  0.40492933  1
  N  N21  1  0.09532994  0.14432001  0.09506986  1
  N  N22  1  0.09532922  0.35568005  0.59506904  1
  N  N23  1  0.90466932  0.85568037  0.90492839  1
  C  C24  1  0.83177031  0.75093008  0.31842947  1
  C  C25  1  0.16822990  0.25093003  0.18156972  1
  C  C26  1  0.16822910  0.24907002  0.68156878  1
  C  C27  1  0.83176954  0.74907002  0.81842884  1
  N  N28  1  0.89617042  0.78612012  0.22002963  1
  N  N29  1  0.10382969  0.28612007  0.27996956  1
  N  N30  1  0.10382896  0.21388004  0.77996868  1
  N  N31  1  0.89616968  0.71387999  0.72002894  1
  C  C32  1  0.01543963  0.69203022  0.25122958  1
  C  C33  1  0.98456028  0.19203006  0.24876961  1
  C  C34  1  0.98455980  0.30797005  0.74876911  1
  C  C35  1  0.01543883  0.80797042  0.75122851  1
  H  H36  1  0.73002707  0.80527818  0.32620246  1
  H  H37  1  0.26997296  0.30527807  0.17379673  1
  H  H38  1  0.26997221  0.19472204  0.67379579  1
  H  H39  1  0.73002648  0.69472193  0.82620184  1
  H  H40  1  0.09656881  0.68601138  0.19365971  1
  H  H41  1  0.90343148  0.18601105  0.30633954  1
  H  H42  1  0.90343065  0.31398905  0.80633892  1
  H  H43  1  0.09656805  0.81398927  0.69365871  1
  C  C44  1  0.67222222  0.12626263  0.46354167  1
  O  O45  1  0.73247393  0.02453897  0.52002764  1
  O  O46  1  0.61197052  0.22798629  0.40705569  1
  C  C47  1  0.31111111  0.62626263  0.02083333  1
  O  O48  1  0.25085940  0.52453897  -0.03565264  1
  O  O49  1  0.37136282  0.72798629  0.07731931  1
  C  C50  1  0.31111111  0.85858586  0.52083333  1
  O  O51  1  0.25085940  0.96030952  0.46434736  1
  O  O52  1  0.37136282  0.75686220  0.57731931  1
  C  C53  1  0.67222222  0.35858586  0.96354167  1
  O  O54  1  0.73247393  0.46030952  1.02002764  1
  O  O55  1  0.61197052  0.25686220  0.90705569  1
