# generated using pymatgen
data_CuH5C9N3O4
_symmetry_space_group_name_H-M   'P 1'
_cell_length_a   4.81352926
_cell_length_b   20.23550371
_cell_length_c   10.71647776
_cell_angle_alpha   90.00000000
_cell_angle_beta   96.93662793
_cell_angle_gamma   90.00000000
_symmetry_Int_Tables_number   1
_chemical_formula_structural   CuH5C9N3O4
_chemical_formula_sum   'Cu4 H20 C36 N12 O16'
_cell_volume   1036.18934680
_cell_formula_units_Z   4
loop_
 _symmetry_equiv_pos_site_id
 _symmetry_equiv_pos_as_xyz
  1  'x, y, z'
loop_
 _atom_site_type_symbol
 _atom_site_label
 _atom_site_symmetry_multiplicity
 _atom_site_fract_x
 _atom_site_fract_y
 _atom_site_fract_z
 _atom_site_occupancy
  Cu  Cu0  1  0.46351990  0.33701303  0.58803731  1
  Cu  Cu1  1  0.46351950  0.16298700  0.08803786  1
  Cu  Cu2  1  0.53647964  0.66298697  0.41196139  1
  Cu  Cu3  1  0.53647995  0.83701303  0.91196050  1
  O  O4  1  0.62107977  0.36045498  0.75661882  1
  O  O5  1  0.62107954  0.13954499  0.25661962  1
  O  O6  1  0.37891971  0.63954502  0.24337964  1
  O  O7  1  0.37892008  0.86045498  0.74337899  1
  O  O8  1  0.88787967  0.31762709  0.92171875  1
  O  O9  1  0.88787928  0.18237299  0.42171935  1
  O  O10  1  0.11211993  0.68237291  0.07827990  1
  O  O11  1  0.11212025  0.81762682  0.57827906  1
  O  O12  1  0.25135030  0.18771999  0.92002846  1
  O  O13  1  0.25135005  0.31228001  0.42002935  1
  O  O14  1  0.74864920  0.81228001  0.07996990  1
  O  O15  1  0.74864961  0.68771999  0.57996935  1
  O  O16  1  0.89695901  0.16991997  0.03701994  1
  O  O17  1  0.89695931  0.33007990  0.53701900  1
  O  O18  1  0.10304052  0.83007990  0.96297832  1
  O  O19  1  0.10304020  0.66991984  0.46297931  1
  N  N20  1  0.51243980  0.24595197  0.65950882  1
  N  N21  1  0.51243951  0.25404798  0.15950977  1
  N  N22  1  0.48755974  0.75404790  0.34048949  1
  N  N23  1  0.48755992  0.74595184  0.84048849  1
  N  N24  1  0.73138979  0.12815399  0.76472906  1
  N  N25  1  0.73138939  0.37184607  0.26472961  1
  N  N26  1  0.26860986  0.87184581  0.23526964  1
  N  N27  1  0.26861016  0.62815393  0.73526875  1
  N  N28  1  0.45584981  0.43661407  0.53991906  1
  N  N29  1  0.45584950  0.06338601  0.03991994  1
  N  N30  1  0.54414975  0.56338593  0.46007929  1
  N  N31  1  0.54415015  0.93661381  0.96007875  1
  C  C32  1  0.70764975  0.24600299  0.76251894  1
  C  C33  1  0.70764937  0.25399699  0.26251959  1
  C  C34  1  0.29234986  0.75399691  0.23747961  1
  C  C35  1  0.29235017  0.74600283  0.73747887  1
  C  C36  1  0.79945973  0.18725399  0.82371884  1
  C  C37  1  0.79945935  0.31274601  0.32371948  1
  C  C38  1  0.20053988  0.81274601  0.17627972  1
  C  C39  1  0.20054023  0.68725399  0.67627897  1
  C  C40  1  0.55409988  0.13065399  0.65593920  1
  C  C41  1  0.55409947  0.36934604  0.15593975  1
  C  C42  1  0.44589976  0.86934604  0.34405946  1
  C  C43  1  0.44590009  0.63065396  0.84405861  1
  C  C44  1  0.44466993  0.19132197  0.60681911  1
  C  C45  1  0.44466958  0.30867798  0.10681986  1
  C  C46  1  0.55532967  0.80867798  0.39317940  1
  C  C47  1  0.55533003  0.69132202  0.89317870  1
  C  C48  1  0.73909980  0.31332500  0.81942892  1
  C  C49  1  0.73909941  0.18667498  0.31942952  1
  C  C50  1  0.26089984  0.68667500  0.18056973  1
  C  C51  1  0.26090015  0.81332500  0.68056889  1
  C  C52  1  0.00000072  0.18004697  0.94230874  1
  C  C53  1  0.00000033  0.31995295  0.44230934  1
  C  C54  1  0.00095003  0.81995295  0.05768992  1
  C  C55  1  0.00095040  0.68004705  0.55768907  1
  C  C56  1  0.64132974  0.47661296  0.59610925  1
  C  C57  1  0.64132935  0.02338700  0.09610985  1
  C  C58  1  0.35866990  0.52338704  0.40388940  1
  C  C59  1  0.35867022  0.97661296  0.90388856  1
  C  C60  1  0.30473995  0.45969488  0.43630933  1
  C  C61  1  0.30474030  0.04030499  0.93630863  1
  C  C62  1  0.69525965  0.54030486  0.56368918  1
  C  C63  1  0.69525930  0.95969488  0.06368992  1
  H  H64  1  0.49880580  0.08413598  0.60780304  1
  H  H65  1  0.49880557  0.41586409  0.10780384  1
  H  H66  1  0.50118872  0.91586488  0.39219740  1
  H  H67  1  0.50118909  0.58413486  0.89219676  1
  H  H68  1  0.29470507  0.19098698  0.52111837  1
  H  H69  1  0.29470469  0.30901297  0.02111897  1
  H  H70  1  0.70529254  0.80900591  0.47888626  1
  H  H71  1  0.70529286  0.69099383  0.97888541  1
  H  H72  1  0.76471561  0.45583683  0.67952476  1
  H  H73  1  0.76471532  0.04416301  0.17952571  1
  H  H74  1  0.23528092  0.54416003  0.32047051  1
  H  H75  1  0.23528124  0.95583997  0.82046957  1
  H  H76  1  0.14701510  0.42966106  0.38161544  1
  H  H77  1  0.14701544  0.07033899  0.88161474  1
  H  H78  1  0.85292849  0.57035489  0.61838307  1
  H  H79  1  0.85292815  0.92964485  0.11838382  1
  C  C80  1  0.01081464  0.52339564  0.01543963  1
  C  C81  1  -0.04111767  0.46919696  -0.02932852  1
  H  H82  1  0.05675178  0.57133753  0.05503966  1
  H  H83  1  -0.08705481  0.42125507  -0.06892854  1
  C  C84  1  0.95848207  0.02217703  0.46581820  1
  C  C85  1  1.01121490  -0.02958444  0.52029291  1
  H  H86  1  0.91183681  0.06796306  0.41763215  1
  H  H87  1  1.05786016  -0.07537047  0.56847896  1
