# generated using pymatgen
data_ZnH2C4N3O2
_symmetry_space_group_name_H-M   'P 1'
_cell_length_a   8.93672357
_cell_length_b   9.84354545
_cell_length_c   9.46231688
_cell_angle_alpha   90.00000000
_cell_angle_beta   116.63589791
_cell_angle_gamma   90.00000000
_symmetry_Int_Tables_number   1
_chemical_formula_structural   ZnH2C4N3O2
_chemical_formula_sum   'Zn4 H8 C16 N12 O8'
_cell_volume   744.05225519
_cell_formula_units_Z   4
loop_
 _symmetry_equiv_pos_site_id
 _symmetry_equiv_pos_as_xyz
  1  'x, y, z'
loop_
 _atom_site_type_symbol
 _atom_site_label
 _atom_site_symmetry_multiplicity
 _atom_site_fract_x
 _atom_site_fract_y
 _atom_site_fract_z
 _atom_site_occupancy
  Zn  Zn0  1  0.17562311  0.44143229  0.43760417  1
  Zn  Zn1  1  0.82437645  0.94143167  0.06239602  1
  Zn  Zn2  1  0.82437529  0.55856632  0.56239621  1
  Zn  Zn3  1  0.17562202  0.05856688  0.93760448  1
  O  O4  1  0.41162890  0.42961933  0.61373027  1
  O  O5  1  0.58836838  0.92961871  0.88627036  1
  O  O6  1  0.58836953  0.57037928  0.38627017  1
  O  O7  1  0.41163003  0.07037989  0.11373002  1
  N  N8  1  0.02572917  0.60571924  0.36103017  1
  N  N9  1  0.97427048  0.10571986  0.13897008  1
  N  N10  1  0.97426926  0.39427936  0.63897001  1
  N  N11  1  0.02572813  0.89427875  0.86103061  1
  C  C12  1  0.52652904  0.47242923  0.58333027  1
  C  C13  1  0.47346824  0.97242845  0.91667042  1
  C  C14  1  0.47346939  0.52756915  0.41667017  1
  C  C15  1  0.52653017  0.02756995  0.08333002  1
  O  O16  1  0.67871899  0.47411925  0.67703047  1
  O  O17  1  0.32127823  0.97411863  0.82297016  1
  O  O18  1  0.32127947  0.52587919  0.32297016  1
  O  O19  1  0.67872012  0.02587996  0.17703009  1
  N  N20  1  0.90466962  0.64431913  0.40493014  1
  N  N21  1  0.09532985  0.14431975  0.09507005  1
  N  N22  1  0.09532866  0.35567942  0.59507023  1
  N  N23  1  0.90466847  0.85567885  0.90493020  1
  C  C24  1  0.83177001  0.75092875  0.31843011  1
  C  C25  1  0.16822973  0.25092958  0.18157008  1
  C  C26  1  0.16822845  0.24906958  0.68157014  1
  C  C27  1  0.83176876  0.74906870  0.81843048  1
  N  N28  1  0.89617021  0.78611872  0.22003007  1
  N  N29  1  0.10382943  0.28611956  0.27997012  1
  N  N30  1  0.10382822  0.21387966  0.77997024  1
  N  N31  1  0.89616900  0.71387872  0.72003038  1
  C  C32  1  0.01543940  0.69202899  0.25123008  1
  C  C33  1  0.98456004  0.19202972  0.24877011  1
  C  C34  1  0.98455909  0.30796950  0.74877061  1
  C  C35  1  0.01543812  0.80796899  0.75123002  1
  H  H36  1  0.73002676  0.80527675  0.32620311  1
  H  H37  1  0.26997280  0.30527753  0.17379707  1
  H  H38  1  0.26997157  0.19472169  0.67379714  1
  H  H39  1  0.73002570  0.69472070  0.82620349  1
  H  H40  1  0.09656863  0.68601016  0.19366009  1
  H  H41  1  0.90343119  0.18601072  0.30634016  1
  H  H42  1  0.90342988  0.31398850  0.80634053  1
  H  H43  1  0.09656739  0.81398783  0.69366009  1
  C  C44  1  0.39166667  0.57575758  0.94791667  1
  C  C45  1  0.40000000  0.90909091  0.45833333  1
  C  C46  1  0.60000000  0.07070707  0.53125000  1
  C  C47  1  0.60000000  0.41414141  0.04166667  1
